[General]

include base.ini
network = NW_LINK_ESTABLISHMENT
num-rngs = 12000  # need N^2+N many

**.ip.limitedBroadcast = true
**.ip.directBroadcastInterfaces = "wlan0"
**.numLoInterfaces = 0
**.numApps = 2

**.app[0].typename = "UdpSink"
**.app[1].typename = "UdpBasicApp"
**.app[0].receiveBroadcast = true
**.app[0].localPort = 3000
**.*xNode[*].app[1].destPort = 3000
**.app[1].messageLength = 1B
**.*xNode[*].app[1].sendInterval = uniform(50ms, 100ms)
**.broadcastNode[*].app[1].sendInterval = uniform(24ms, 50ms)


**.txNode[*].app[1].startTime = uniform(12ms, 24ms)

**.txNode[*].app[1].destAddresses = "rxNode[" + string(parentIndex()) + "]"
**.rxNode[*].app[1].destAddresses = "txNode[" + string(parentIndex()) + "]"

**.broadcastNode[*].ipv4.ip.limitedBroadcast = true
**.broadcastNode[*].ipv4.ip.directBroadcastInterfaces = "wlan0"
**.broadcastNode[*].app[1].destAddresses = "255.255.255.255"
**.broadcastNode[*].app[1].startTime = uniform(12ms, 100ms)
**.broadcastNode[*].app[1].destPort = 3000

**.wlan[*].linkLayer.contentionMethod = "randomized_slotted_aloha"
**.vector-recording = true

[Config PPLinkEstablishmentTimes]
extends=FixedPos
**.vector-recording = true
**.txNode[*].app[1].startTime = 10s
**.rxNode[*].app[1].startTime = 100s  
sim-time-limit = 30s
repeat = 20
**.numNodes = ${n=1}
**.numBroadcastNodes = ${m=0..60 step 5}
**.radio.per = 0.0
**.linkLayer.alwaysScheduleNextBroadcastSlot = true
**.linkLayer.consider_duty_cycle = true
**.linkLayer.duty_cycle_min_num_supported_pp_links = ${l=0,1,2,4}

[Config PPVoice]
extends=FixedPos
**.vector-recording = true
**.txNode[*].app[1].startTime = uniform(0.01s, 0.05s)
**.*xNode[*].app[1].sendInterval = uniform(1ms, 4ms)
sim-time-limit = 60s
**.rxNode[*].app[1].startTime = 1000s  # >sim-time-limit => will never send data
repeat = 1
**.numNodes = ${n=1}  # really it's no. of pairs, so n=1 creates two users
**.numPPChannels = 10
**.numBroadcastNodes = 10
**.linkLayer.planningHorizon = 8192
**.radio.per = 0.1
**.linkLayer.consider_duty_cycle = true
**.linkLayer.duty_cycle_min_num_supported_pp_links = ${l=0,1,2,4}