[General]
include base.ini
network = NW_TX_RX
num-rngs = 12000  # need N^2+N many

**.numApps = 1
**.txNodes[*].ipv4.ip.limitedBroadcast = true
**.txNodes[*].ipv4.ip.directBroadcastInterfaces = "wlan0"
**.rxNode.ipv4.ip.limitedBroadcast = true
**.rxNode.ipv4.ip.directBroadcastInterfaces = "wlan0"
**.numLoInterfaces = 0

**.rxNode.app[0].typename = "UdpSink"
**.rxNode.app[0].receiveBroadcast = true
**.rxNode.app[0].localPort = 3000

**.txNodes[*].app[0].typename = "UdpBasicApp" 
**.txNodes[*].app[0].destAddresses = "255.255.255.255"
**.txNodes[*].app[0].startTime = uniform(12ms, 1000ms)
**.txNodes[*].app[0].endTime = 30s
**.txNodes[*].app[0].messageLength = 1B
**.txNodes[*].app[0].destPort = 3000

**.wlan[*].linkLayer.contentionMethod = "naive_random_access"
**.vector-recording = false

[Config RandomAccess]
extends=FixedPos
repeat=40
**.numTxNodes = ${n=1,2,3,4,5,10,15,20,25,30}
**.linkLayer.advertiseNextBroadcastSlotInCurrentHeader = false
**.linkLayer.broadcastSlotSelectionMinNumCandidateSlots = ${c=5,10,20,30,40,60}
**.linkLayer.broadcastSlotSelectionMaxNumCandidateSlots = ${c}
**.txNodes[*].app[0].sendInterval = uniform(5ms, 23ms)
sim-time-limit = 60s
**.txNodes[*].app[0].endTime = 50s
**.vector-recording = true

[Config RandomAccessSlotAdv]
extends=RandomAccess
**.linkLayer.advertiseNextBroadcastSlotInCurrentHeader = true

[Config RandomizedSlottedAloha95]
extends=FixedPos
repeat=40
**.vector-recording = true
**.linkLayer.broadcastTargetCollisionRate = .05
**.numTxNodes = ${n=1,2,3,4,5,10,15,20,25,30}
**.linkLayer.advertiseNextBroadcastSlotInCurrentHeader = false
**.wlan[*].linkLayer.contentionMethod = "randomized_slotted_aloha"
**.txNodes[*].app[0].sendInterval = uniform(5ms, 23ms)
sim-time-limit = 300s
**.txNodes[*].app[0].endTime = 290s

[Config RandomizedSlottedAloha75]
extends=RandomizedSlottedAloha95
**.linkLayer.broadcastTargetCollisionRate = .25

[Config RandomizedSlottedAloha50]
extends=RandomizedSlottedAloha95
**.linkLayer.broadcastTargetCollisionRate = .5

[Config RandomizedSlottedAlohaOptimal]
extends=RandomizedSlottedAloha95
**.linkLayer.broadcastTargetCollisionRate = .626

[Config RandomizedSlottedAloha25]
extends=RandomizedSlottedAloha95
**.linkLayer.broadcastTargetCollisionRate = .75

[Config BroadcastVoice]
extends=FixedPos
repeat=10
**.vector-recording = false
**.txNodes[*].app[0].sendInterval = uniform(15ms, 23ms)
**.numTxNodes = ${n=1,5,10,15,20,25,30}
**.radio.per = ${e=0.0, 0.05, 0.10, 0.15}
**.wlan[*].linkLayer.contentionMethod = "randomized_slotted_aloha"
**.minNumSupportedPPLinks = 1
**.txNodes[*].app[0].startTime = uniform(0.01s, 0.5s)
**.txNodes[*].app[0].endTime = 180s
sim-time-limit = 180s