[General]
include base.ini

[Config SanityCheck]
extends=FixedPos
network = NW_TX_RX
num-rngs = 5000  # need N^2+N many
sim-time-limit = 10s 
repeat=2
**.numTxNodes = ${n=5 .. 6 step 1}

**.numApps = 1
**.txNodes[*].ipv4.ip.limitedBroadcast = true
**.txNodes[*].ipv4.ip.directBroadcastInterfaces = "wlan0"
**.rxNode.ipv4.ip.limitedBroadcast = true
**.rxNode.ipv4.ip.directBroadcastInterfaces = "wlan0"
**.numLoInterfaces = 0

**.rxNode.app[0].typename = "UdpSink"
**.rxNode.app[0].receiveBroadcast = true
**.rxNode.app[0].localPort = 3000

**.txNodes[*].app[0].typename = "UdpBasicApp" 
**.txNodes[*].app[0].destAddresses = "255.255.255.255"
**.txNodes[*].app[0].startTime = uniform(12ms, 1000ms)
**.txNodes[*].app[0].endTime = 30s
**.txNodes[*].app[0].messageLength = 1B
**.txNodes[*].app[0].destPort = 3000
**.txNodes[*].app[0].sendInterval = ${s=100 .. 200 step 50}ms